Version 4
SHEET 1 3576 680
WIRE 2192 -160 1920 -160
WIRE 2448 -160 2192 -160
WIRE 3008 -160 2448 -160
WIRE 3168 -160 3008 -160
WIRE 3008 -96 3008 -160
WIRE 2448 -80 2448 -160
WIRE 3168 -80 3168 -160
WIRE 2960 -48 2720 -48
WIRE 816 -32 816 -96
WIRE 784 -16 272 -16
WIRE 2960 -16 2960 -48
WIRE 1008 0 848 0
WIRE 1392 0 1296 0
WIRE 1584 0 1472 0
WIRE 784 16 736 16
WIRE 3008 16 3008 0
WIRE 3168 16 3168 -16
WIRE 3168 16 3008 16
WIRE 128 64 128 -32
WIRE 2448 64 2448 -16
WIRE 3264 64 2448 64
WIRE 3504 64 3344 64
WIRE 816 96 816 32
WIRE 1920 112 1920 -160
WIRE 2192 112 2192 -160
WIRE 3504 112 3504 64
WIRE 3504 128 3504 112
WIRE 1456 160 1456 80
WIRE 272 176 272 -16
WIRE 736 176 736 16
WIRE 1184 176 1088 176
WIRE 1296 176 1296 0
WIRE 1296 176 1264 176
WIRE 1424 176 1296 176
WIRE 1584 192 1584 0
WIRE 1584 192 1488 192
WIRE 1712 192 1584 192
WIRE 128 208 128 144
WIRE 128 208 32 208
WIRE 1424 208 1344 208
WIRE 3008 224 3008 16
WIRE 3504 224 3504 176
WIRE 3504 224 3008 224
WIRE 128 256 128 208
WIRE 32 272 32 208
WIRE 1456 272 1456 224
WIRE 3008 272 3008 224
WIRE 3168 272 3008 272
WIRE 3008 288 3008 272
WIRE 1344 304 1344 208
WIRE 2448 304 2448 64
WIRE 3168 304 3168 272
WIRE 272 320 272 256
WIRE 736 320 736 256
WIRE 2960 336 2720 336
WIRE 2960 368 2960 336
WIRE 128 416 128 336
WIRE 1920 480 1920 192
WIRE 2192 480 2192 176
WIRE 2192 480 1920 480
WIRE 2448 480 2448 368
WIRE 2448 480 2192 480
WIRE 3008 480 3008 384
WIRE 3008 480 2448 480
WIRE 3168 480 3168 368
WIRE 3168 480 3008 480
FLAG 32 272 0
FLAG 128 -32 Vp
FLAG 128 416 Vn
FLAG 272 320 0
FLAG 736 320 0
FLAG 816 -96 Vp
FLAG 816 96 Vn
FLAG 1456 80 Vp
FLAG 1456 272 Vn
FLAG 1712 192 Vs2
FLAG 1344 304 0
FLAG 1008 0 Vs1
FLAG 1088 176 Vs1
FLAG 2720 -48 Vs1
FLAG 2720 336 Vs2
SYMBOL voltage 128 48 R0
WINDOW 123 0 0 Left 0
WINDOW 39 0 0 Left 0
SYMATTR InstName V1
SYMATTR Value 5
SYMBOL voltage 128 240 R0
WINDOW 123 0 0 Left 0
WINDOW 39 0 0 Left 0
SYMATTR InstName V2
SYMATTR Value 5
SYMBOL Comparators\\LT1721 816 -64 R0
SYMATTR InstName U1
SYMBOL Comparators\\LT1721 1456 128 R0
SYMATTR InstName U2
SYMBOL voltage 272 160 R0
WINDOW 123 0 0 Left 0
WINDOW 39 0 0 Left 0
SYMATTR InstName V3
SYMATTR Value SINE(0 .95 1000 15.615u 0 0)
SYMBOL voltage 736 160 R0
WINDOW 123 0 0 Left 0
WINDOW 39 0 0 Left 0
SYMATTR InstName V4
SYMATTR Value PULSE(-1 1 0 15.625u 15.625u 0 31.25u)
SYMBOL res 1280 160 R90
WINDOW 0 0 56 VBottom 2
WINDOW 3 32 56 VTop 2
SYMATTR InstName R1
SYMATTR Value 10k
SYMBOL res 1488 -16 R90
WINDOW 0 0 56 VBottom 2
WINDOW 3 32 56 VTop 2
SYMATTR InstName R2
SYMATTR Value 50k
SYMBOL voltage 1920 96 R0
WINDOW 123 0 0 Left 0
WINDOW 39 0 0 Left 0
SYMATTR InstName V5
SYMATTR Value 200
SYMBOL cap 2176 112 R0
SYMATTR InstName C1
SYMATTR Value 100µ
SYMBOL cap 2432 -80 R0
SYMATTR InstName C2
SYMATTR Value 100µ
SYMBOL cap 2432 304 R0
SYMATTR InstName C3
SYMATTR Value 100µ
SYMBOL nmos 2960 -96 R0
SYMATTR InstName M1
SYMBOL nmos 2960 288 R0
SYMATTR InstName M2
SYMBOL diode 3184 -16 R180
WINDOW 0 24 64 Left 2
WINDOW 3 24 0 Left 2
SYMATTR InstName D1
SYMBOL diode 3184 368 R180
WINDOW 0 24 64 Left 2
WINDOW 3 24 0 Left 2
SYMATTR InstName D2
SYMBOL ind 3248 80 R270
WINDOW 0 32 56 VTop 2
WINDOW 3 5 56 VBottom 2
SYMATTR InstName L1
SYMATTR Value 2.2m
SYMBOL cap 3488 112 R0
SYMATTR InstName C4
SYMATTR Value 1µ
TEXT 264 -72 Left 2 !.tran 100m
